Circuit: * E:\Labs\Lab3\Draft1.asc

Direct Newton iteration for .op point succeeded.
Semiconductor Device Operating Points:
                        --- Diodes ---
Name:      d2
Model:      d
Id:      3.54e-03
Vd:      6.88e-01
Req:     7.30e+00
CAP:     0.00e+00



Date: Sun Mar 06 17:43:52 2022
Total elapsed time: 0.042 seconds.

tnom = 27
temp = 27
method = trap
totiter = 6
traniter = 0
tranpoints = 0
accept = 0
rejected = 0
matrix size = 8
fillins = 0
solver = Normal
Matrix Compiler1: 228 bytes object code size
Matrix Compiler2: 500 bytes object code size
