Circuit: * E:\Labs\Lab3\lab3-PSU.asc

Direct Newton iteration for .op point succeeded.

Date: Sun Feb 20 15:33:43 2022
Total elapsed time: 0.083 seconds.

tnom = 27
temp = 27
method = modified trap
totiter = 2977
traniter = 2963
tranpoints = 1314
accept = 1228
rejected = 86
matrix size = 16
fillins = 10
solver = Normal
Matrix Compiler1:      69 opcodes  0.2/[0.1]/0.1
Matrix Compiler2: off  [0.1]/0.2/0.1

